Circuit: * Z:\Documents\study\IC-test\IntegratedCircuitTestLab\2.1.5_NewKelvinConnectionCalc.asc

Direct Newton iteration for .op point succeeded.

Date: Mon Mar 27 09:24:36 2023
Total elapsed time: 0.074 seconds.

tnom = 27
temp = 27
method = modified trap
totiter = 2085
traniter = 2082
tranpoints = 1042
accept = 1042
rejected = 0
matrix size = 10
fillins = 4
solver = Normal
Avg thread counts: 1.1/1.3/1.3/1.1
Matrix Compiler1:      27 opcodes  0.5/[0.4]/0.6
Matrix Compiler2: off  [0.2]/0.3/6.8

